Circuit: *line regulation

Per .tran options, skipping operating point for transient analysis.
.step vsource=15
.step vsource=20
.step vsource=25

Date: Sat Oct 16 19:10:17 2021
Total elapsed time: 81.528 seconds.

tnom = 27
temp = 27
method = modified trap
totiter = 1765487
traniter = 1765487
tranpoints = 752489
accept = 534255
rejected = 218234
matrix size = 67
fillins = 28
solver = Normal
Thread vector: 8.0/6.3[2] 3.4/3.0[2] 2.1/2.3[1] 0.8/1.7[1]  2592/500
Matrix Compiler1: 5.46 KB object code size  2.2/1.2/[0.9]
Matrix Compiler2: 5.83 KB object code size  1.0/1.3/[0.8]

