Circuit: *transient response

Per .tran options, skipping operating point for transient analysis.

Date: Sat Oct 16 19:13:25 2021
Total elapsed time: 25.025 seconds.

tnom = 27
temp = 27
method = modified trap
totiter = 1484210
traniter = 1484210
tranpoints = 629778
accept = 447469
rejected = 182309
matrix size = 67
fillins = 28
solver = Normal
Thread vector: 9.9/8.6[2] 5.5/4.7[2] 3.3/3.7[1] 1.0/2.2[1]  2592/500
Matrix Compiler1: 5.46 KB object code size  3.8/1.9/[1.3]
Matrix Compiler2: 5.83 KB object code size  2.1/1.8/[1.2]

